<nodes>
	<node id="n0" x="1000" y="1000"/>
	<node id="n1" x="1000" y="0" />
	<node id="n2" x="1000" y="2000" />
	<node id="n3" x="2000" y="1000"/>
	<node id="n4" x="0" y="1000"/>
</nodes>