<?xml version="1.0" encoding="UTF-8"?>

<!-- generated on 06/26/20 09:06:36 by Eclipse SUMO netconvert Version 1.6.0
<configuration xmlns:xsi="http://www.w3.org/2001/XMLSchema-instance" xsi:noNamespaceSchemaLocation="http://sumo.dlr.de/xsd/netconvertConfiguration.xsd">

    <input>
        <node-files value="Network_Nodes.nod.xml"/>
        <edge-files value="Network_Edges.edg.xml"/>
        <type-files value="Network_Type.type.xml"/>
    </input>

    <output>
        <output-file value="Network_Net.net.xml"/>
    </output>

    <report>
        <aggregate-warnings value="5"/>
    </report>

</configuration>
-->

<net version="1.6" junctionCornerDetail="5" limitTurnSpeed="5.50" xmlns:xsi="http://www.w3.org/2001/XMLSchema-instance" xsi:noNamespaceSchemaLocation="http://sumo.dlr.de/xsd/net_file.xsd">

    <location netOffset="0.00,0.00" convBoundary="0.00,0.00,2000.00,2000.00" origBoundary="0.00,0.00,2000.00,2000.00" projParameter="!"/>

    <type id="2L15" priority="1" numLanes="1" speed="20.00"/>
    <type id="3L30" priority="1" numLanes="2" speed="30.00"/>
    <type id="3L45" priority="1" numLanes="2" speed="45.00"/>

    <edge id=":n0_0" function="internal">
        <lane id=":n0_0_0" index="0" speed="7.46" length="11.29" width="6.00" shape="997.00,1010.00 996.56,1006.94 995.25,1004.75 993.06,1003.44 990.00,1003.00"/>
    </edge>
    <edge id=":n0_1" function="internal">
        <lane id=":n0_1_0" index="0" speed="20.00" length="20.00" width="6.00" shape="997.00,1010.00 997.00,990.00"/>
    </edge>
    <edge id=":n0_2" function="internal">
        <lane id=":n0_2_0" index="0" speed="9.57" length="9.93" width="6.00" shape="997.00,1010.00 998.17,1005.38 1001.20,1001.20"/>
    </edge>
    <edge id=":n0_3" function="internal">
        <lane id=":n0_3_0" index="0" speed="5.00" length="4.38" width="6.00" shape="997.00,1010.00 998.50,1007.75 1000.00,1007.00"/>
    </edge>
    <edge id=":n0_16" function="internal">
        <lane id=":n0_16_0" index="0" speed="9.57" length="9.93" width="6.00" shape="1001.20,1001.20 1005.38,998.17 1010.00,997.00"/>
    </edge>
    <edge id=":n0_17" function="internal">
        <lane id=":n0_17_0" index="0" speed="5.00" length="4.38" width="6.00" shape="1000.00,1007.00 1001.50,1007.75 1003.00,1010.00"/>
    </edge>
    <edge id=":n0_4" function="internal">
        <lane id=":n0_4_0" index="0" speed="7.46" length="11.29" width="6.00" shape="1010.00,1003.00 1006.94,1003.44 1004.75,1004.75 1003.44,1006.94 1003.00,1010.00"/>
    </edge>
    <edge id=":n0_5" function="internal">
        <lane id=":n0_5_0" index="0" speed="20.00" length="20.00" width="6.00" shape="1010.00,1003.00 990.00,1003.00"/>
    </edge>
    <edge id=":n0_6" function="internal">
        <lane id=":n0_6_0" index="0" speed="9.57" length="19.86" width="6.00" shape="1010.00,1003.00 1005.38,1001.83 1001.20,998.80 998.17,994.62 997.00,990.00"/>
    </edge>
    <edge id=":n0_7" function="internal">
        <lane id=":n0_7_0" index="0" speed="5.00" length="8.76" width="6.00" shape="1010.00,1003.00 1007.75,1001.50 1007.00,1000.00 1007.75,998.50 1010.00,997.00"/>
    </edge>
    <edge id=":n0_8" function="internal">
        <lane id=":n0_8_0" index="0" speed="7.46" length="11.29" width="6.00" shape="1003.00,990.00 1003.44,993.06 1004.75,995.25 1006.94,996.56 1010.00,997.00"/>
    </edge>
    <edge id=":n0_9" function="internal">
        <lane id=":n0_9_0" index="0" speed="20.00" length="20.00" width="6.00" shape="1003.00,990.00 1003.00,1010.00"/>
    </edge>
    <edge id=":n0_10" function="internal">
        <lane id=":n0_10_0" index="0" speed="9.57" length="9.93" width="6.00" shape="1003.00,990.00 1001.83,994.62 998.80,998.80"/>
    </edge>
    <edge id=":n0_11" function="internal">
        <lane id=":n0_11_0" index="0" speed="5.00" length="4.38" width="6.00" shape="1003.00,990.00 1001.50,992.25 1000.00,993.00"/>
    </edge>
    <edge id=":n0_18" function="internal">
        <lane id=":n0_18_0" index="0" speed="9.57" length="9.93" width="6.00" shape="998.80,998.80 994.62,1001.83 990.00,1003.00"/>
    </edge>
    <edge id=":n0_19" function="internal">
        <lane id=":n0_19_0" index="0" speed="5.00" length="4.38" width="6.00" shape="1000.00,993.00 998.50,992.25 997.00,990.00"/>
    </edge>
    <edge id=":n0_12" function="internal">
        <lane id=":n0_12_0" index="0" speed="7.46" length="11.29" width="6.00" shape="990.00,997.00 993.06,996.56 995.25,995.25 996.56,993.06 997.00,990.00"/>
    </edge>
    <edge id=":n0_13" function="internal">
        <lane id=":n0_13_0" index="0" speed="20.00" length="20.00" width="6.00" shape="990.00,997.00 1010.00,997.00"/>
    </edge>
    <edge id=":n0_14" function="internal">
        <lane id=":n0_14_0" index="0" speed="9.57" length="19.86" width="6.00" shape="990.00,997.00 994.62,998.17 998.80,1001.20 1001.83,1005.38 1003.00,1010.00"/>
    </edge>
    <edge id=":n0_15" function="internal">
        <lane id=":n0_15_0" index="0" speed="5.00" length="8.76" width="6.00" shape="990.00,997.00 992.25,998.50 993.00,1000.00 992.25,1001.50 990.00,1003.00"/>
    </edge>
    <edge id=":n1_0" function="internal">
        <lane id=":n1_0_0" index="0" speed="5.00" length="8.76" width="6.00" shape="997.00,0.00 998.50,-2.25 1000.00,-3.00 1001.50,-2.25 1003.00,0.00"/>
    </edge>
    <edge id=":n2_0" function="internal">
        <lane id=":n2_0_0" index="0" speed="5.00" length="8.76" width="6.00" shape="1003.00,2000.00 1001.50,2002.25 1000.00,2003.00 998.50,2002.25 997.00,2000.00"/>
    </edge>
    <edge id=":n3_0" function="internal">
        <lane id=":n3_0_0" index="0" speed="5.00" length="8.76" width="6.00" shape="2000.00,997.00 2002.25,998.50 2003.00,1000.00 2002.25,1001.50 2000.00,1003.00"/>
    </edge>
    <edge id=":n4_0" function="internal">
        <lane id=":n4_0_0" index="0" speed="5.00" length="8.76" width="6.00" shape="0.00,1003.00 -2.25,1001.50 -3.00,1000.00 -2.25,998.50 0.00,997.00"/>
    </edge>

    <edge id="0to1" from="n0" to="n1" priority="1" type="2L15">
        <lane id="0to1_0" index="0" speed="20.00" length="990.00" width="6.00" shape="997.00,990.00 997.00,0.00"/>
    </edge>
    <edge id="0to2" from="n0" to="n2" priority="1" type="2L15">
        <lane id="0to2_0" index="0" speed="20.00" length="990.00" width="6.00" shape="1003.00,1010.00 1003.00,2000.00"/>
    </edge>
    <edge id="0to3" from="n0" to="n3" priority="1" type="2L15">
        <lane id="0to3_0" index="0" speed="20.00" length="990.00" width="6.00" shape="1010.00,997.00 2000.00,997.00"/>
    </edge>
    <edge id="0to4" from="n0" to="n4" priority="1" type="2L15">
        <lane id="0to4_0" index="0" speed="20.00" length="990.00" width="6.00" shape="990.00,1003.00 0.00,1003.00"/>
    </edge>
    <edge id="1to0" from="n1" to="n0" priority="1" type="2L15">
        <lane id="1to0_0" index="0" speed="20.00" length="990.00" width="6.00" shape="1003.00,0.00 1003.00,990.00"/>
    </edge>
    <edge id="2to0" from="n2" to="n0" priority="1" type="2L15">
        <lane id="2to0_0" index="0" speed="20.00" length="990.00" width="6.00" shape="997.00,2000.00 997.00,1010.00"/>
    </edge>
    <edge id="3to0" from="n3" to="n0" priority="1" type="2L15">
        <lane id="3to0_0" index="0" speed="20.00" length="990.00" width="6.00" shape="2000.00,1003.00 1010.00,1003.00"/>
    </edge>
    <edge id="4to0" from="n4" to="n0" priority="1" type="2L15">
        <lane id="4to0_0" index="0" speed="20.00" length="990.00" width="6.00" shape="0.00,997.00 990.00,997.00"/>
    </edge>

    <junction id="n0" type="priority" x="1000.00" y="1000.00" incLanes="2to0_0 3to0_0 1to0_0 4to0_0" intLanes=":n0_0_0 :n0_1_0 :n0_16_0 :n0_17_0 :n0_4_0 :n0_5_0 :n0_6_0 :n0_7_0 :n0_8_0 :n0_9_0 :n0_18_0 :n0_19_0 :n0_12_0 :n0_13_0 :n0_14_0 :n0_15_0" shape="994.00,1010.00 1006.00,1010.00 1006.44,1007.78 1007.00,1007.00 1007.78,1006.44 1008.78,1006.11 1010.00,1006.00 1010.00,994.00 1007.78,993.56 1007.00,993.00 1006.44,992.22 1006.11,991.22 1006.00,990.00 994.00,990.00 993.56,992.22 993.00,993.00 992.22,993.56 991.22,993.89 990.00,994.00 990.00,1006.00 992.22,1006.44 993.00,1007.00 993.56,1007.78 993.89,1008.78">
        <request index="0"  response="0000000000000000" foes="1000010000100000" cont="0"/>
        <request index="1"  response="0000000000000000" foes="0111110001100000" cont="0"/>
        <request index="2"  response="0000001100000000" foes="0110001111100000" cont="1"/>
        <request index="3"  response="0100001000010000" foes="0100001000010000" cont="1"/>
        <request index="4"  response="0000001000000000" foes="0100001000001000" cont="0"/>
        <request index="5"  response="0000011000000111" foes="1100011000000111" cont="0"/>
        <request index="6"  response="0011011000000110" foes="0011111000000110" cont="0"/>
        <request index="7"  response="0010000100000100" foes="0010000100000100" cont="0"/>
        <request index="8"  response="0000000000000000" foes="0010000010000100" cont="0"/>
        <request index="9"  response="0000000000000000" foes="0110000001111100" cont="0"/>
        <request index="10" response="0000000000000011" foes="1110000001100011" cont="1"/>
        <request index="11" response="0001000001000010" foes="0001000001000010" cont="1"/>
        <request index="12" response="0000000000000010" foes="0000100001000010" cont="0"/>
        <request index="13" response="0000011100000110" foes="0000011111000110" cont="0"/>
        <request index="14" response="0000011000110110" foes="0000011000111110" cont="0"/>
        <request index="15" response="0000010000100001" foes="0000010000100001" cont="0"/>
    </junction>
    <junction id="n1" type="priority" x="1000.00" y="0.00" incLanes="0to1_0" intLanes=":n1_0_0" shape="1000.00,0.00 994.00,0.00 1000.00,0.00">
        <request index="0" response="0" foes="0" cont="0"/>
    </junction>
    <junction id="n2" type="priority" x="1000.00" y="2000.00" incLanes="0to2_0" intLanes=":n2_0_0" shape="1000.00,2000.00 1006.00,2000.00 1000.00,2000.00">
        <request index="0" response="0" foes="0" cont="0"/>
    </junction>
    <junction id="n3" type="priority" x="2000.00" y="1000.00" incLanes="0to3_0" intLanes=":n3_0_0" shape="2000.00,1000.00 2000.00,994.00 2000.00,1000.00">
        <request index="0" response="0" foes="0" cont="0"/>
    </junction>
    <junction id="n4" type="priority" x="0.00" y="1000.00" incLanes="0to4_0" intLanes=":n4_0_0" shape="0.00,1000.00 0.00,1006.00 0.00,1000.00">
        <request index="0" response="0" foes="0" cont="0"/>
    </junction>

    <junction id=":n0_16_0" type="internal" x="1001.20" y="1001.20" incLanes=":n0_2_0 1to0_0" intLanes=":n0_5_0 :n0_6_0 :n0_7_0 :n0_8_0 :n0_9_0 :n0_13_0 :n0_14_0"/>
    <junction id=":n0_17_0" type="internal" x="1000.00" y="1007.00" incLanes=":n0_3_0 1to0_0 3to0_0 4to0_0" intLanes=":n0_4_0 :n0_9_0 :n0_14_0"/>
    <junction id=":n0_18_0" type="internal" x="998.80" y="998.80" incLanes=":n0_10_0 2to0_0" intLanes=":n0_0_0 :n0_1_0 :n0_5_0 :n0_6_0 :n0_13_0 :n0_14_0 :n0_15_0"/>
    <junction id=":n0_19_0" type="internal" x="1000.00" y="993.00" incLanes=":n0_11_0 2to0_0 3to0_0 4to0_0" intLanes=":n0_1_0 :n0_6_0 :n0_12_0"/>

    <connection from="0to1" to="1to0" fromLane="0" toLane="0" via=":n1_0_0" dir="t" state="M"/>
    <connection from="0to2" to="2to0" fromLane="0" toLane="0" via=":n2_0_0" dir="t" state="M"/>
    <connection from="0to3" to="3to0" fromLane="0" toLane="0" via=":n3_0_0" dir="t" state="M"/>
    <connection from="0to4" to="4to0" fromLane="0" toLane="0" via=":n4_0_0" dir="t" state="M"/>
    <connection from="1to0" to="0to3" fromLane="0" toLane="0" via=":n0_8_0" dir="r" state="M"/>
    <connection from="1to0" to="0to2" fromLane="0" toLane="0" via=":n0_9_0" dir="s" state="M"/>
    <connection from="1to0" to="0to4" fromLane="0" toLane="0" via=":n0_10_0" dir="l" state="m"/>
    <connection from="1to0" to="0to1" fromLane="0" toLane="0" via=":n0_11_0" dir="t" state="m"/>
    <connection from="2to0" to="0to4" fromLane="0" toLane="0" via=":n0_0_0" dir="r" state="M"/>
    <connection from="2to0" to="0to1" fromLane="0" toLane="0" via=":n0_1_0" dir="s" state="M"/>
    <connection from="2to0" to="0to3" fromLane="0" toLane="0" via=":n0_2_0" dir="l" state="m"/>
    <connection from="2to0" to="0to2" fromLane="0" toLane="0" via=":n0_3_0" dir="t" state="m"/>
    <connection from="3to0" to="0to2" fromLane="0" toLane="0" via=":n0_4_0" dir="r" state="m"/>
    <connection from="3to0" to="0to4" fromLane="0" toLane="0" via=":n0_5_0" dir="s" state="m"/>
    <connection from="3to0" to="0to1" fromLane="0" toLane="0" via=":n0_6_0" dir="l" state="m"/>
    <connection from="3to0" to="0to3" fromLane="0" toLane="0" via=":n0_7_0" dir="t" state="m"/>
    <connection from="4to0" to="0to1" fromLane="0" toLane="0" via=":n0_12_0" dir="r" state="m"/>
    <connection from="4to0" to="0to3" fromLane="0" toLane="0" via=":n0_13_0" dir="s" state="m"/>
    <connection from="4to0" to="0to2" fromLane="0" toLane="0" via=":n0_14_0" dir="l" state="m"/>
    <connection from="4to0" to="0to4" fromLane="0" toLane="0" via=":n0_15_0" dir="t" state="m"/>

    <connection from=":n0_0" to="0to4" fromLane="0" toLane="0" dir="r" state="M"/>
    <connection from=":n0_1" to="0to1" fromLane="0" toLane="0" dir="s" state="M"/>
    <connection from=":n0_2" to="0to3" fromLane="0" toLane="0" via=":n0_16_0" dir="l" state="m"/>
    <connection from=":n0_16" to="0to3" fromLane="0" toLane="0" dir="l" state="M"/>
    <connection from=":n0_3" to="0to2" fromLane="0" toLane="0" via=":n0_17_0" dir="t" state="m"/>
    <connection from=":n0_17" to="0to2" fromLane="0" toLane="0" dir="t" state="M"/>
    <connection from=":n0_4" to="0to2" fromLane="0" toLane="0" dir="r" state="M"/>
    <connection from=":n0_5" to="0to4" fromLane="0" toLane="0" dir="s" state="M"/>
    <connection from=":n0_6" to="0to1" fromLane="0" toLane="0" dir="l" state="M"/>
    <connection from=":n0_7" to="0to3" fromLane="0" toLane="0" dir="t" state="M"/>
    <connection from=":n0_8" to="0to3" fromLane="0" toLane="0" dir="r" state="M"/>
    <connection from=":n0_9" to="0to2" fromLane="0" toLane="0" dir="s" state="M"/>
    <connection from=":n0_10" to="0to4" fromLane="0" toLane="0" via=":n0_18_0" dir="l" state="m"/>
    <connection from=":n0_18" to="0to4" fromLane="0" toLane="0" dir="l" state="M"/>
    <connection from=":n0_11" to="0to1" fromLane="0" toLane="0" via=":n0_19_0" dir="t" state="m"/>
    <connection from=":n0_19" to="0to1" fromLane="0" toLane="0" dir="t" state="M"/>
    <connection from=":n0_12" to="0to1" fromLane="0" toLane="0" dir="r" state="M"/>
    <connection from=":n0_13" to="0to3" fromLane="0" toLane="0" dir="s" state="M"/>
    <connection from=":n0_14" to="0to2" fromLane="0" toLane="0" dir="l" state="M"/>
    <connection from=":n0_15" to="0to4" fromLane="0" toLane="0" dir="t" state="M"/>
    <connection from=":n1_0" to="1to0" fromLane="0" toLane="0" dir="t" state="M"/>
    <connection from=":n2_0" to="2to0" fromLane="0" toLane="0" dir="t" state="M"/>
    <connection from=":n3_0" to="3to0" fromLane="0" toLane="0" dir="t" state="M"/>
    <connection from=":n4_0" to="4to0" fromLane="0" toLane="0" dir="t" state="M"/>

</net>
