<edges>
	
	<edge from="n1" to="n0" id="1to0" type="2L15" priority="1" funcation="normal" width="6"/>
	<edge from="n2" to="n0" id="2to0" type="2L15" priority="1" funcation="normal" width="6"/>
	<edge from="n3" to="n0" id="3to0" type="2L15" priority="1" funcation="normal" width="3"/>
	<edge from="n4" to="n0" id="4to0" type="2L15" priority="1" funcation="normal" width="6"/>

	<edge from="n0" to="n1" id="0to1" type="2L15" priority="1" funcation="normal" width="6"/>
	<edge from="n0" to="n2" id="0to2" type="2L15" priority="1" funcation="normal" width="6"/>
	<edge from="n0" to="n3" id="0to3" type="2L15" priority="1" funcation="normal" width="6"/>
	<edge from="n0" to="n4" id="0to4" type="2L15"  priority="1" funcation="normal" width="6"/>

</edges>
